version 2
3
9
.tran 10m 1{return}.kicad adjustpaths{return}.save all{return}.probe alli
2
2
I(VD9)
 
1
V(V+)
 
1
.ac dec 10 1 20k{return}.kicad adjustpaths{return}.save all{return}.probe alli
2
9
V(V+)
 
5
V(V+)
 
9
.tran 10m 1{return}.kicad adjustpaths{return}.save all{return}.probe alli
1
1
V(V+)
 
