.SUBCKT LM324 OUTA INA- INA+ V+ INB+ INB- OUTB OUTC INC- INC+ V- IND+ IND- OUTD
.INCLUDE "lm358.txt"
XUA INA- INA+ OUTA V+ V- LM358
XUB INB- INB+ OUTB V+ V- LM358
XUC INC- INC+ OUTC V+ V- LM358
XUD IND- IND+ OUTD V+ V- LM358
.ENDS
