.SUBCKT LM358-DUAL OUTA INA- INA+ V- INB+ INB- OUTB V+
.INCLUDE "lm358.txt"
XUA INA- INA+ OUTA V+ V- LM358
XUB INB- INB+ OUTB V+ V- LM358
.ENDS
