* PINS          1  2    3     4   5   6   7   8        9        10 11    12  13   14
.SUBCKT MCP4922 VPLUS NC2 CS_BAR SCK SDI NC6 NC7 LDAC_BAR SHDN_BAR VB VREFB VMINUS VREFA VA
R1 VPLUS VMINUS 100k
C1 VPLUS VMINUS 1p
.ENDS
