.SUBCKT TRAFO 1 2 3 4
L1 1 2 1
L2 3 4 0.04356
K L1 L2 0.99999
RL 3 4 500
.ENDS
